#!/sbin/sh
SKIPUNZIP=1
unzip -o "$ZIPFILE" 'module.prop' -d "$MODPATH" >&2
unzip -o "$ZIPFILE" 'service.sh' -d "$MODPATH" >&2
chmod +x "$MODPATH/service.sh"
